<?xml version="1.0" encoding="UTF-8"?>

<!-- generated on 2024-03-19 17:40:06.438062 by osmWebWizard.py v1_17_0+0449-cfbc9c56519
<configuration>
    <net-file value="C:\Users\bingjiew\sumo\tools\2024-03-19-17-40-03\osm.net.xml.gz"/>
    <output-trip-file value="C:\Users\bingjiew\sumo\tools\2024-03-19-17-40-03\osm.passenger.trips.xml"/>
    <route-file value="C:\Users\bingjiew\sumo\tools\2024-03-19-17-40-03\osm.passenger.rou.xml"/>
    <prefix value="veh"/>
    <trip-attributes value="departLane=&quot;best&quot;"/>
    <fringe-start-attributes value="departSpeed=&quot;max&quot;"/>
    <end value="1800.0"/>
    <lanes value="True"/>
    <fringe-factor value="5"/>
    <allow-fringe.min-length value="1000.0"/>
    <min-distance value="300.0"/>
    <min-distance.fringe value="10.0"/>
    <vehicle-class value="passenger"/>
    <remove-loops value="True"/>
    <via-edge-types value="highway.motorway,highway.motorway_link,highway.trunk_link,highway.primary_link,highway.secondary_link,highway.tertiary_link"/>
    <validate value="True"/>
    <insertion-density value="12.0"/>
</configuration>
-->

<!-- generated on 2024-03-19 17:40:06 by Eclipse SUMO duarouter Version 1.17.0
<configuration xmlns:xsi="http://www.w3.org/2001/XMLSchema-instance" xsi:noNamespaceSchemaLocation="http://sumo.dlr.de/xsd/duarouterConfiguration.xsd">

    <input>
        <net-file value="C:\Users\bingjiew\sumo\tools\2024-03-19-17-40-03\osm.net.xml.gz"/>
        <route-files value="C:\Users\bingjiew\sumo\tools\2024-03-19-17-40-03\osm.passenger.trips.xml"/>
    </input>

    <output>
        <output-file value="C:\Users\bingjiew\sumo\tools\2024-03-19-17-40-03\osm.passenger.trips.xml.tmp"/>
        <alternatives-output value="NUL"/>
        <write-trips value="true"/>
    </output>

    <processing>
        <remove-loops value="true"/>
    </processing>

    <time>
        <begin value="0.0"/>
        <end value="1800.0"/>
    </time>

    <report>
        <no-warnings value="true"/>
        <ignore-errors value="true"/>
        <no-step-log value="true"/>
    </report>

</configuration>
-->

<routes xmlns:xsi="http://www.w3.org/2001/XMLSchema-instance" xsi:noNamespaceSchemaLocation="http://sumo.dlr.de/xsd/routes_file.xsd">
    <vType id="veh_passenger" vClass="passenger"/>
    <trip id="veh0" type="veh_passenger" depart="0.00" departLane="best" departSpeed="max" from="23921793" to="-1125717921"/>
    <trip id="veh1" type="veh_passenger" depart="1.63" departLane="best" from="1029083901#1" to="1020954428#0"/>
    <trip id="veh2" type="veh_passenger" depart="3.25" departLane="best" departSpeed="max" from="297918473" to="23959011#2"/>
    <trip id="veh3" type="veh_passenger" depart="4.88" departLane="best" from="83717490#0" to="-159220095#1"/>
    <trip id="veh4" type="veh_passenger" depart="6.50" departLane="best" from="1164369190" to="-1125737065"/>
    <trip id="veh5" type="veh_passenger" depart="8.13" departLane="best" from="1027026947#1-AddedOnRampEdge" to="-147218602"/>
    <trip id="veh6" type="veh_passenger" depart="9.76" departLane="best" from="-1146048075" to="-88973828#1"/>
    <trip id="veh7" type="veh_passenger" depart="11.38" departLane="best" from="23945351" to="-148730093"/>
    <trip id="veh8" type="veh_passenger" depart="13.01" departLane="best" from="1027026947#2" to="159127465"/>
    <trip id="veh9" type="veh_passenger" depart="14.64" departLane="best" from="654095062#1" to="-1020954426#2"/>
    <trip id="veh10" type="veh_passenger" depart="16.26" departLane="best" from="645485030" to="24212751#2"/>
    <trip id="veh11" type="veh_passenger" depart="17.89" departLane="best" from="1113583565" to="737886124#1"/>
    <trip id="veh12" type="veh_passenger" depart="19.51" departLane="best" from="86114514#1" to="10997507"/>
    <trip id="veh13" type="veh_passenger" depart="21.14" departLane="best" from="203993795#1" to="-190333935"/>
    <trip id="veh14" type="veh_passenger" depart="22.77" departLane="best" from="77739761#1" to="165019829"/>
    <trip id="veh15" type="veh_passenger" depart="24.39" departLane="best" from="645485030" to="26651978"/>
    <trip id="veh16" type="veh_passenger" depart="26.02" departLane="best" from="157901392#1" to="86788116"/>
    <trip id="veh17" type="veh_passenger" depart="27.64" departLane="best" from="1146049841" to="148730096#1"/>
    <trip id="veh18" type="veh_passenger" depart="29.27" departLane="best" from="776177318#2" to="203201955"/>
    <trip id="veh19" type="veh_passenger" depart="30.90" departLane="best" from="83473206#0" to="158806866#1"/>
    <trip id="veh20" type="veh_passenger" depart="32.52" departLane="best" from="26605797#1" to="-115040535"/>
    <trip id="veh21" type="veh_passenger" depart="34.15" departLane="best" from="1027026948" to="47222455"/>
    <trip id="veh22" type="veh_passenger" depart="35.77" departLane="best" from="-188955910" to="1027026947#1-AddedOnRampEdge"/>
    <trip id="veh23" type="veh_passenger" depart="37.40" departLane="best" from="-26649138" to="1029083897#0"/>
    <trip id="veh24" type="veh_passenger" depart="39.03" departLane="best" departSpeed="max" from="23921793" to="86114514#1"/>
    <trip id="veh25" type="veh_passenger" depart="40.65" departLane="best" from="1146048071" to="-90157532"/>
    <trip id="veh26" type="veh_passenger" depart="42.28" departLane="best" from="1029083898" to="-83740789"/>
    <trip id="veh27" type="veh_passenger" depart="43.91" departLane="best" departSpeed="max" from="23921793" to="188955910"/>
    <trip id="veh28" type="veh_passenger" depart="45.53" departLane="best" from="87174879#12" to="26651978"/>
    <trip id="veh29" type="veh_passenger" depart="47.16" departLane="best" from="83719544" to="1146049839#2"/>
    <trip id="veh30" type="veh_passenger" depart="48.78" departLane="best" departSpeed="max" from="88973828#0" to="203993794"/>
    <trip id="veh31" type="veh_passenger" depart="50.41" departLane="best" from="159452906" to="24116946"/>
    <trip id="veh32" type="veh_passenger" depart="52.04" departLane="best" from="77739754#1" to="47220587#2"/>
    <trip id="veh33" type="veh_passenger" depart="53.66" departLane="best" from="1027026948" to="-1125737065"/>
    <trip id="veh34" type="veh_passenger" depart="55.29" departLane="best" departSpeed="max" from="10983877#0" to="1029083895"/>
    <trip id="veh35" type="veh_passenger" depart="56.91" departLane="best" from="1027026947#0" to="848302026"/>
    <trip id="veh36" type="veh_passenger" depart="58.54" departLane="best" from="-83571190#1" to="10975703#0"/>
    <trip id="veh37" type="veh_passenger" depart="60.17" departLane="best" from="23958992#0" to="115040544"/>
    <trip id="veh38" type="veh_passenger" depart="61.79" departLane="best" departSpeed="max" from="845269636" to="137569762"/>
    <trip id="veh39" type="veh_passenger" depart="63.42" departLane="best" from="1029083898" to="1027026949#0"/>
    <trip id="veh40" type="veh_passenger" depart="65.05" departLane="best" from="165019828" to="147149338#0"/>
    <trip id="veh41" type="veh_passenger" depart="66.67" departLane="best" from="203201909" to="83473236"/>
    <trip id="veh42" type="veh_passenger" depart="68.30" departLane="best" from="115415287" to="-1020954426#1"/>
    <trip id="veh43" type="veh_passenger" depart="69.92" departLane="best" from="954819645" to="147218604"/>
    <trip id="veh44" type="veh_passenger" depart="71.55" departLane="best" from="203993795#0" to="-115040535"/>
    <trip id="veh45" type="veh_passenger" depart="73.18" departLane="best" departSpeed="max" from="-47222459" to="203201988"/>
    <trip id="veh46" type="veh_passenger" depart="74.80" departLane="best" departSpeed="max" from="628914349" to="115575973#2"/>
    <trip id="veh47" type="veh_passenger" depart="76.43" departLane="best" from="-154416144#1" to="1146049839#2"/>
    <trip id="veh48" type="veh_passenger" depart="78.05" departLane="best" from="159452907" to="147218620#2"/>
    <trip id="veh49" type="veh_passenger" depart="79.68" departLane="best" departSpeed="max" from="87174879#0" to="77739749#0"/>
    <trip id="veh50" type="veh_passenger" depart="81.31" departLane="best" departSpeed="max" from="-1027038410#2" to="26610871"/>
    <trip id="veh51" type="veh_passenger" depart="82.93" departLane="best" from="760428769" to="147221751"/>
    <trip id="veh52" type="veh_passenger" depart="84.56" departLane="best" from="1029083898" to="203993796"/>
    <trip id="veh53" type="veh_passenger" depart="86.18" departLane="best" departSpeed="max" from="-47222459" to="47220583#1"/>
    <trip id="veh54" type="veh_passenger" depart="87.81" departLane="best" from="137569762" to="86114471"/>
    <trip id="veh55" type="veh_passenger" depart="89.44" departLane="best" from="83571190#0" to="1027452233#1"/>
    <trip id="veh56" type="veh_passenger" depart="91.06" departLane="best" from="147293749" to="-86424655#0"/>
    <trip id="veh57" type="veh_passenger" depart="92.69" departLane="best" departSpeed="max" from="845269636" to="77739761#0"/>
    <trip id="veh58" type="veh_passenger" depart="94.32" departLane="best" from="47222455" to="203993795#1"/>
    <trip id="veh59" type="veh_passenger" depart="95.94" departLane="best" departSpeed="max" from="203201986" to="-737886124#0"/>
    <trip id="veh60" type="veh_passenger" depart="97.57" departLane="best" from="47220587#2-AddedOffRampEdge" to="147293749"/>
    <trip id="veh61" type="veh_passenger" depart="99.19" departLane="best" from="47235253-AddedOffRampEdge" to="147218620#2"/>
    <trip id="veh62" type="veh_passenger" depart="100.82" departLane="best" from="-1020954425" to="10977472"/>
    <trip id="veh63" type="veh_passenger" depart="102.45" departLane="best" from="-10990554#1" to="83717479"/>
    <trip id="veh64" type="veh_passenger" depart="104.07" departLane="best" departSpeed="max" from="10983877#0" to="128851166#0"/>
    <trip id="veh65" type="veh_passenger" depart="105.70" departLane="best" from="83715516#0" to="85115626"/>
    <trip id="veh66" type="veh_passenger" depart="107.32" departLane="best" from="203201956#1" to="147149338#1"/>
    <trip id="veh67" type="veh_passenger" depart="108.95" departLane="best" from="-158806868#1" to="47220583#3"/>
    <trip id="veh68" type="veh_passenger" depart="110.58" departLane="best" from="47220587#2-AddedOffRampEdge" to="-36256810"/>
    <trip id="veh69" type="veh_passenger" depart="112.20" departLane="best" from="147218567" to="148730096#0"/>
    <trip id="veh70" type="veh_passenger" depart="113.83" departLane="best" from="1029083898" to="77739761#1"/>
    <trip id="veh71" type="veh_passenger" depart="115.46" departLane="best" from="1164369190" to="-954819647"/>
    <trip id="veh72" type="veh_passenger" depart="117.08" departLane="best" from="157901392#0" to="-26718729"/>
    <trip id="veh73" type="veh_passenger" depart="118.71" departLane="best" from="1020954426#0" to="10966626"/>
    <trip id="veh74" type="veh_passenger" depart="120.33" departLane="best" from="159452907" to="204021344"/>
    <trip id="veh75" type="veh_passenger" depart="121.96" departLane="best" from="120060160#0" to="147218620#2"/>
    <trip id="veh76" type="veh_passenger" depart="123.59" departLane="best" from="-654095062#0" to="1020954428#1"/>
    <trip id="veh77" type="veh_passenger" depart="125.21" departLane="best" from="1113583565" to="159127465"/>
    <trip id="veh78" type="veh_passenger" depart="126.84" departLane="best" from="1027026949#0" to="-1020954426#2"/>
    <trip id="veh79" type="veh_passenger" depart="128.46" departLane="best" from="48258392#0" to="-203993793"/>
    <trip id="veh80" type="veh_passenger" depart="130.09" departLane="best" from="1027026948" to="83571190#0"/>
    <trip id="veh81" type="veh_passenger" depart="131.72" departLane="best" from="780058002" to="-153286060"/>
    <trip id="veh82" type="veh_passenger" depart="133.34" departLane="best" from="1027036484" to="23958992#0-AddedOffRampEdge"/>
    <trip id="veh83" type="veh_passenger" depart="134.97" departLane="best" from="1027026947#1" to="-36256810"/>
    <trip id="veh84" type="veh_passenger" depart="136.59" departLane="best" departSpeed="max" from="845604602#0" to="154416146#1"/>
    <trip id="veh85" type="veh_passenger" depart="138.22" departLane="best" from="147149346" to="-47220590"/>
    <trip id="veh86" type="veh_passenger" depart="139.85" departLane="best" from="645485030" to="-87174879#11"/>
    <trip id="veh87" type="veh_passenger" depart="141.47" departLane="best" from="23959052#1" to="1168198279"/>
    <trip id="veh88" type="veh_passenger" depart="143.10" departLane="best" from="1164369190" to="140581165"/>
    <trip id="veh89" type="veh_passenger" depart="144.73" departLane="best" from="27254185" to="23959004"/>
    <trip id="veh90" type="veh_passenger" depart="146.35" departLane="best" departSpeed="max" from="88973828#0" to="-197099111"/>
    <trip id="veh91" type="veh_passenger" depart="147.98" departLane="best" from="115575973#0" to="1108065036"/>
    <trip id="veh92" type="veh_passenger" depart="149.60" departLane="best" from="83473206#0" to="1027026949#1"/>
    <trip id="veh93" type="veh_passenger" depart="151.23" departLane="best" departSpeed="max" from="1020851362#0" to="147218567"/>
    <trip id="veh94" type="veh_passenger" depart="152.86" departLane="best" from="1164369190" to="1029083897#0-AddedOnRampEdge"/>
    <trip id="veh95" type="veh_passenger" depart="154.48" departLane="best" departSpeed="max" from="1027452233#0" to="83717461"/>
    <trip id="veh96" type="veh_passenger" depart="156.11" departLane="best" from="128851169" to="77739749#0"/>
    <trip id="veh97" type="veh_passenger" depart="157.73" departLane="best" from="158806866#1-AddedOnRampEdge" to="-115411973#1"/>
    <trip id="veh98" type="veh_passenger" depart="159.36" departLane="best" from="954819646" to="70944644"/>
    <trip id="veh99" type="veh_passenger" depart="160.99" departLane="best" departSpeed="max" from="87174879#0" to="83717461"/>
    <trip id="veh100" type="veh_passenger" depart="162.61" departLane="best" from="77739762" to="-83715517#1"/>
    <trip id="veh102" type="veh_passenger" depart="165.87" departLane="best" from="115415293#1" to="128851166#0"/>
    <trip id="veh103" type="veh_passenger" depart="167.49" departLane="best" from="1146049843" to="87174881"/>
    <trip id="veh104" type="veh_passenger" depart="169.12" departLane="best" from="1029083898" to="1027026947#0"/>
    <trip id="veh105" type="veh_passenger" depart="170.74" departLane="best" from="137569762" to="1164369189"/>
    <trip id="veh106" type="veh_passenger" depart="172.37" departLane="best" from="1123278918" to="159452907"/>
    <trip id="veh107" type="veh_passenger" depart="174.00" departLane="best" from="159452906" to="26610855"/>
    <trip id="veh108" type="veh_passenger" depart="175.62" departLane="best" departSpeed="max" from="70944642#2" to="1029111778"/>
    <trip id="veh109" type="veh_passenger" depart="177.25" departLane="best" departSpeed="max" from="87174879#0" to="158806866#1-AddedOnRampEdge"/>
    <trip id="veh110" type="veh_passenger" depart="178.87" departLane="best" from="157901392#1" to="1168198280#1"/>
    <trip id="veh111" type="veh_passenger" depart="180.50" departLane="best" from="-147391148" to="159127465"/>
    <trip id="veh112" type="veh_passenger" depart="182.13" departLane="best" from="147391148" to="77449324#0"/>
    <trip id="veh113" type="veh_passenger" depart="183.75" departLane="best" departSpeed="max" from="-83717479" to="1027026948"/>
    <trip id="veh114" type="veh_passenger" depart="185.38" departLane="best" from="-188955910" to="-87174879#11"/>
    <trip id="veh115" type="veh_passenger" depart="187.01" departLane="best" departSpeed="max" from="203201914" to="190333939"/>
    <trip id="veh116" type="veh_passenger" depart="188.63" departLane="best" from="1027026949#1-AddedOnRampEdge" to="-297918473"/>
    <trip id="veh117" type="veh_passenger" depart="190.26" departLane="best" from="83715519" to="1027026949#0"/>
    <trip id="veh118" type="veh_passenger" depart="191.88" departLane="best" departSpeed="max" from="203201914" to="203201988"/>
    <trip id="veh119" type="veh_passenger" depart="193.51" departLane="best" from="1164369189" to="159127465"/>
    <trip id="veh120" type="veh_passenger" depart="195.14" departLane="best" departSpeed="max" from="153286061" to="83717490#1"/>
    <trip id="veh121" type="veh_passenger" depart="196.76" departLane="best" from="1020954426#2" to="26609634"/>
    <trip id="veh122" type="veh_passenger" depart="198.39" departLane="best" from="1027038406" to="-115040544"/>
    <trip id="veh123" type="veh_passenger" depart="200.01" departLane="best" from="23959041" to="1029111779"/>
    <trip id="veh124" type="veh_passenger" depart="201.64" departLane="best" from="10983877#0-AddedOffRampEdge" to="47220583#0-AddedOnRampEdge"/>
    <trip id="veh125" type="veh_passenger" depart="203.27" departLane="best" from="159219959#0" to="-137569762"/>
    <trip id="veh126" type="veh_passenger" depart="204.89" departLane="best" from="159219959#0" to="147149346"/>
    <trip id="veh127" type="veh_passenger" depart="206.52" departLane="best" from="1029083898" to="83717490#0"/>
    <trip id="veh128" type="veh_passenger" depart="208.14" departLane="best" from="83715516#1" to="77739763"/>
    <trip id="veh129" type="veh_passenger" depart="209.77" departLane="best" from="1146048071" to="85115629"/>
    <trip id="veh130" type="veh_passenger" depart="211.40" departLane="best" from="77739749#0" to="26215947"/>
    <trip id="veh131" type="veh_passenger" depart="213.02" departLane="best" from="203993793" to="87174881"/>
    <trip id="veh132" type="veh_passenger" depart="214.65" departLane="best" from="23957037" to="1020954426#2"/>
    <trip id="veh133" type="veh_passenger" depart="216.28" departLane="best" from="70944641#0" to="1029111779"/>
    <trip id="veh134" type="veh_passenger" depart="217.90" departLane="best" from="23959004" to="1121648921"/>
    <trip id="veh135" type="veh_passenger" depart="219.53" departLane="best" departSpeed="max" from="-765907327#1" to="-26558511"/>
    <trip id="veh136" type="veh_passenger" depart="221.15" departLane="best" from="-47222455" to="148730096#1"/>
    <trip id="veh137" type="veh_passenger" depart="222.78" departLane="best" from="1029083899-AddedOnRampEdge" to="83715519"/>
    <trip id="veh138" type="veh_passenger" depart="224.41" departLane="best" from="26630843" to="-88973828#1"/>
    <trip id="veh139" type="veh_passenger" depart="226.03" departLane="best" departSpeed="max" from="23921793" to="1029083892"/>
    <trip id="veh140" type="veh_passenger" depart="227.66" departLane="best" from="77739761#1" to="-165019828"/>
    <trip id="veh141" type="veh_passenger" depart="229.28" departLane="best" from="1164369190" to="1029083897#0"/>
    <trip id="veh142" type="veh_passenger" depart="230.91" departLane="best" from="-1020954426#0" to="47220583#3"/>
    <trip id="veh143" type="veh_passenger" depart="232.54" departLane="best" departSpeed="max" from="23921793" to="1027452233#1"/>
    <trip id="veh144" type="veh_passenger" depart="234.16" departLane="best" departSpeed="max" from="40801250" to="148730094#0"/>
    <trip id="veh145" type="veh_passenger" depart="235.79" departLane="best" from="1168198279" to="-1029083901#0"/>
    <trip id="veh146" type="veh_passenger" depart="237.42" departLane="best" from="-159452939#0" to="1089985681"/>
    <trip id="veh147" type="veh_passenger" depart="239.04" departLane="best" departSpeed="max" from="83737610" to="148730096#1"/>
    <trip id="veh148" type="veh_passenger" depart="240.67" departLane="best" from="77739749#0" to="158806868#1"/>
    <trip id="veh149" type="veh_passenger" depart="242.29" departLane="best" from="83473236" to="-36256810"/>
    <trip id="veh150" type="veh_passenger" depart="243.92" departLane="best" departSpeed="max" from="10983877#0" to="83473242#1"/>
    <trip id="veh151" type="veh_passenger" depart="245.55" departLane="best" departSpeed="max" from="628914349" to="77739749#0"/>
    <trip id="veh152" type="veh_passenger" depart="247.17" departLane="best" departSpeed="max" from="83737610" to="-90157532"/>
    <trip id="veh153" type="veh_passenger" depart="248.80" departLane="best" departSpeed="max" from="1027452233#0" to="-203201990#0"/>
    <trip id="veh154" type="veh_passenger" depart="250.42" departLane="best" from="48258392#0" to="1089985681"/>
    <trip id="veh155" type="veh_passenger" depart="252.05" departLane="best" from="115575984#2" to="203201988"/>
    <trip id="veh156" type="veh_passenger" depart="253.68" departLane="best" departSpeed="max" from="70944642#2" to="83717479"/>
    <trip id="veh157" type="veh_passenger" depart="255.30" departLane="best" from="83473226" to="86788116"/>
    <trip id="veh158" type="veh_passenger" depart="256.93" departLane="best" from="-70944637" to="77739786"/>
    <trip id="veh159" type="veh_passenger" depart="258.55" departLane="best" departSpeed="max" from="-112368684" to="27252285"/>
    <trip id="veh160" type="veh_passenger" depart="260.18" departLane="best" departSpeed="max" from="11000973#0" to="83717479"/>
    <trip id="veh161" type="veh_passenger" depart="261.81" departLane="best" from="645485027" to="77739749#1"/>
    <trip id="veh162" type="veh_passenger" depart="263.43" departLane="best" from="-70944637" to="1029083895"/>
    <trip id="veh163" type="veh_passenger" depart="265.06" departLane="best" departSpeed="max" from="628914349" to="-203993795#0"/>
    <trip id="veh164" type="veh_passenger" depart="266.69" departLane="best" from="190333939" to="77739748"/>
    <trip id="veh165" type="veh_passenger" depart="268.31" departLane="best" from="47220587#0" to="645485027"/>
    <trip id="veh166" type="veh_passenger" depart="269.94" departLane="best" departSpeed="max" from="147149334#0" to="1081327661"/>
    <trip id="veh167" type="veh_passenger" depart="271.56" departLane="best" departSpeed="max" from="628914349" to="1027026947#0"/>
    <trip id="veh168" type="veh_passenger" depart="273.19" departLane="best" departSpeed="max" from="-112368684" to="-87656628#0"/>
    <trip id="veh169" type="veh_passenger" depart="274.82" departLane="best" from="10997507" to="77739749#1"/>
    <trip id="veh170" type="veh_passenger" depart="276.44" departLane="best" departSpeed="max" from="87174879#0" to="1029083897#0-AddedOnRampEdge"/>
    <trip id="veh171" type="veh_passenger" depart="278.07" departLane="best" departSpeed="max" from="23921793" to="115411973#0"/>
    <trip id="veh172" type="veh_passenger" depart="279.69" departLane="best" departSpeed="max" from="88973828#0" to="147221751"/>
    <trip id="veh173" type="veh_passenger" depart="281.32" departLane="best" from="-159452939#0" to="-26558511"/>
    <trip id="veh174" type="veh_passenger" depart="282.95" departLane="best" departSpeed="max" from="87174879#0" to="86424655#0"/>
    <trip id="veh175" type="veh_passenger" depart="284.57" departLane="best" from="86424644" to="1029083897#0-AddedOnRampEdge"/>
    <trip id="veh176" type="veh_passenger" depart="286.20" departLane="best" departSpeed="max" from="-47222459" to="47220583#1"/>
    <trip id="veh177" type="veh_passenger" depart="287.83" departLane="best" from="27254185" to="10975703#0"/>
    <trip id="veh178" type="veh_passenger" depart="289.45" departLane="best" departSpeed="max" from="203201986" to="147218620#0"/>
    <trip id="veh179" type="veh_passenger" depart="291.08" departLane="best" departSpeed="max" from="1146050462" to="158806866#1"/>
    <trip id="veh180" type="veh_passenger" depart="292.70" departLane="best" from="1029083892" to="26446401"/>
    <trip id="veh181" type="veh_passenger" depart="294.33" departLane="best" from="1020954425" to="83717461"/>
    <trip id="veh182" type="veh_passenger" depart="295.96" departLane="best" from="154416146#1" to="26610859#1"/>
    <trip id="veh183" type="veh_passenger" depart="297.58" departLane="best" departSpeed="max" from="40801250" to="23958992#1"/>
    <trip id="veh184" type="veh_passenger" depart="299.21" departLane="best" departSpeed="max" from="1125737065" to="-148730093"/>
    <trip id="veh185" type="veh_passenger" depart="300.83" departLane="best" from="23959004" to="10986332"/>
    <trip id="veh186" type="veh_passenger" depart="302.46" departLane="best" departSpeed="max" from="10983877#0" to="765907327#1"/>
    <trip id="veh187" type="veh_passenger" depart="304.09" departLane="best" from="26651978" to="1029111781"/>
    <trip id="veh188" type="veh_passenger" depart="305.71" departLane="best" departSpeed="max" from="10983877#0" to="115575973#2"/>
    <trip id="veh189" type="veh_passenger" depart="307.34" departLane="best" from="115575973#0" to="-70944642#0"/>
    <trip id="veh190" type="veh_passenger" depart="308.96" departLane="best" from="954819646" to="115575984#1"/>
    <trip id="veh191" type="veh_passenger" depart="310.59" departLane="best" from="85115626" to="23959011#2"/>
    <trip id="veh192" type="veh_passenger" depart="312.22" departLane="best" departSpeed="max" from="83737610" to="203201955"/>
    <trip id="veh194" type="veh_passenger" depart="315.47" departLane="best" from="-1020954425" to="47222455"/>
    <trip id="veh195" type="veh_passenger" depart="317.10" departLane="best" from="1168198280#0" to="158806866#1-AddedOnRampEdge"/>
    <trip id="veh196" type="veh_passenger" depart="318.72" departLane="best" from="23957037" to="140581165"/>
    <trip id="veh197" type="veh_passenger" depart="320.35" departLane="best" from="-128851166#1" to="1020954425"/>
    <trip id="veh198" type="veh_passenger" depart="321.97" departLane="best" from="-954819647" to="83473244"/>
    <trip id="veh199" type="veh_passenger" depart="323.60" departLane="best" departSpeed="max" from="628914349" to="-83715517#1"/>
    <trip id="veh200" type="veh_passenger" depart="325.23" departLane="best" from="-203201956#0" to="147218620#0-AddedOffRampEdge"/>
    <trip id="veh201" type="veh_passenger" depart="326.85" departLane="best" departSpeed="max" from="23921793" to="10990554#3"/>
    <trip id="veh202" type="veh_passenger" depart="328.48" departLane="best" from="70944641#0" to="47220583#0-AddedOnRampEdge"/>
    <trip id="veh203" type="veh_passenger" depart="330.10" departLane="best" from="23959052#0" to="1020954428#1"/>
    <trip id="veh204" type="veh_passenger" depart="331.73" departLane="best" from="1020954425" to="-1125717921"/>
    <trip id="veh205" type="veh_passenger" depart="333.36" departLane="best" departSpeed="max" from="1027452233#0" to="140581165"/>
    <trip id="veh206" type="veh_passenger" depart="334.98" departLane="best" from="77739762" to="-154416144#1"/>
    <trip id="veh207" type="veh_passenger" depart="336.61" departLane="best" from="115575984#0" to="-203201956#0"/>
    <trip id="veh208" type="veh_passenger" depart="338.24" departLane="best" departSpeed="max" from="1020851362#0" to="24212751#1"/>
    <trip id="veh209" type="veh_passenger" depart="339.86" departLane="best" from="147218655" to="1027026948"/>
    <trip id="veh210" type="veh_passenger" depart="341.49" departLane="best" from="23958992#0" to="1020954426#1"/>
    <trip id="veh211" type="veh_passenger" depart="343.11" departLane="best" from="47220583#0-AddedOnRampEdge" to="47220583#3"/>
    <trip id="veh212" type="veh_passenger" depart="344.74" departLane="best" from="-47222455" to="1164369190"/>
    <trip id="veh213" type="veh_passenger" depart="346.37" departLane="best" from="88973828#2" to="1027026948"/>
    <trip id="veh214" type="veh_passenger" depart="347.99" departLane="best" departSpeed="max" from="153238947" to="-115411973#0"/>
    <trip id="veh215" type="veh_passenger" depart="349.62" departLane="best" departSpeed="max" from="1027452233#0" to="765907327#1"/>
    <trip id="veh216" type="veh_passenger" depart="351.24" departLane="best" from="140779093#1" to="47235253"/>
    <trip id="veh217" type="veh_passenger" depart="352.87" departLane="best" from="23959011#2" to="87656628#0"/>
    <trip id="veh218" type="veh_passenger" depart="354.50" departLane="best" departSpeed="max" from="203201914" to="85115629"/>
    <trip id="veh219" type="veh_passenger" depart="356.12" departLane="best" from="165019830" to="190333940"/>
    <trip id="veh220" type="veh_passenger" depart="357.75" departLane="best" from="26651978" to="147218586"/>
    <trip id="veh221" type="veh_passenger" depart="359.37" departLane="best" from="115575973#0" to="148730094#1"/>
    <trip id="veh222" type="veh_passenger" depart="361.00" departLane="best" departSpeed="max" from="83737610" to="24116946"/>
    <trip id="veh223" type="veh_passenger" depart="362.63" departLane="best" from="147218567" to="1027038410#2"/>
    <trip id="veh224" type="veh_passenger" depart="364.25" departLane="best" departSpeed="max" from="1027452233#0" to="-203993795#1"/>
    <trip id="veh225" type="veh_passenger" depart="365.88" departLane="best" from="47220587#2-AddedOffRampEdge" to="147218620#2"/>
    <trip id="veh226" type="veh_passenger" depart="367.51" departLane="best" from="23921310" to="1029083895"/>
    <trip id="veh228" type="veh_passenger" depart="370.76" departLane="best" from="154416146#1" to="-40801250"/>
    <trip id="veh229" type="veh_passenger" depart="372.38" departLane="best" from="1027026949#0" to="24212713#1"/>
    <trip id="veh230" type="veh_passenger" depart="374.01" departLane="best" from="26609634" to="147221751"/>
    <trip id="veh231" type="veh_passenger" depart="375.64" departLane="best" from="115575973#3" to="147391148"/>
    <trip id="veh232" type="veh_passenger" depart="377.26" departLane="best" from="115575984#1" to="-88973828#2"/>
    <trip id="veh233" type="veh_passenger" depart="378.89" departLane="best" from="1164369189" to="83473247"/>
    <trip id="veh234" type="veh_passenger" depart="380.51" departLane="best" from="190333940" to="24212751#1"/>
    <trip id="veh235" type="veh_passenger" depart="382.14" departLane="best" from="77739786" to="47220583#3"/>
    <trip id="veh236" type="veh_passenger" depart="383.77" departLane="best" from="1146049844" to="-1020954426#1"/>